*Heading
** Job name: Test Model name: Test
** Generated by: Abaqus/CAE 2023
*Preprint, echo=NO, model=NO, history=NO, contact=NO
**
** PARTS
**
*Part, name=Plate
*Node
      1,           0.,           0.,           0.
      2, 0.0500000007,           0.,           0.
      3,  0.100000001,           0.,           0.
      4,  0.150000006,           0.,           0.
      5,  0.200000003,           0.,           0.
      6,         0.25,           0.,           0.
      7,  0.300000012,           0.,           0.
      8,  0.349999994,           0.,           0.
      9,  0.400000006,           0.,           0.
     10,  0.449999988,           0.,           0.
     11,          0.5,           0.,           0.
     12,  0.550000012,           0.,           0.
     13,  0.600000024,           0.,           0.
     14,  0.649999976,           0.,           0.
     15,  0.699999988,           0.,           0.
     16,         0.75,           0.,           0.
     17,  0.800000012,           0.,           0.
     18,  0.850000024,           0.,           0.
     19,  0.899999976,           0.,           0.
     20,  0.949999988,           0.,           0.
** ... 421 like lines cut
*Element, type=S4R
  1,   1,   2,  23,  22
  2,   2,   3,  24,  23
  3,   3,   4,  25,  24
  4,   4,   5,  26,  25
  5,   5,   6,  27,  26
  6,   6,   7,  28,  27
  7,   7,   8,  29,  28
  8,   8,   9,  30,  29
  9,   9,  10,  31,  30
 10,  10,  11,  32,  31
 11,  11,  12,  33,  32
 12,  12,  13,  34,  33
 13,  13,  14,  35,  34
 14,  14,  15,  36,  35
 15,  15,  16,  37,  36
 16,  16,  17,  38,  37
 17,  17,  18,  39,  38
 18,  18,  19,  40,  39
 19,  19,  20,  41,  40
 20,  20,  21,  42,  41
** ... 380 like lines cut
*Nset, nset=_PickedSet4, internal, generate
   1,  441,    1
*Elset, elset=_PickedSet4, internal, generate
   1,  400,    1
** Section: Plate
*Shell Section, elset=_PickedSet4, material=Steel
0.01, 5
*End Part
**  
**
** ASSEMBLY
**
*Assembly, name=Assembly
**  
*Instance, name=Plate-1, part=Plate
*End Instance
**  
*Nset, nset=_PickedSet4, internal, instance=Plate-1
   1,   2,   3,   4,   5,   6,   7,   8,   9,  10,  11,  12,  13,  14,  15,  16
  17,  18,  19,  20,  21,  22,  42,  43,  63,  64,  84,  85, 105, 106, 126, 127
 147, 148, 168, 169, 189, 190, 210, 211, 231, 232, 252, 253, 273, 274, 294, 295
 315, 316, 336, 337, 357, 358, 378, 379, 399, 400, 420, 421, 422, 423, 424, 425
 426, 427, 428, 429, 430, 431, 432, 433, 434, 435, 436, 437, 438, 439, 440, 441
*Elset, elset=_PickedSet4, internal, instance=Plate-1
   1,   2,   3,   4,   5,   6,   7,   8,   9,  10,  11,  12,  13,  14,  15,  16
  17,  18,  19,  20,  21,  40,  41,  60,  61,  80,  81, 100, 101, 120, 121, 140
 141, 160, 161, 180, 181, 200, 201, 220, 221, 240, 241, 260, 261, 280, 281, 300
 301, 320, 321, 340, 341, 360, 361, 380, 381, 382, 383, 384, 385, 386, 387, 388
 389, 390, 391, 392, 393, 394, 395, 396, 397, 398, 399, 400
*Elset, elset=__PickedSurf5_SPOS, internal, instance=Plate-1, generate
   1,  400,    1
*Surface, type=ELEMENT, name=_PickedSurf5, internal
__PickedSurf5_SPOS, SPOS
*End Assembly
** 
** MATERIALS
** 
*Material, name=Steel
*Elastic
 2.1e+11, 0.3
** ----------------------------------------------------------------
** 
** STEP: Step-1
** 
*Step, name=Step-1, nlgeom=NO
*Static
0.1, 1., 1e-05, 1.
** 
** BOUNDARY CONDITIONS
** 
** Name: Fixed Type: Symmetry/Antisymmetry/Encastre
*Boundary
_PickedSet4, ENCASTRE
** 
** LOADS
** 
** Name: Pressure   Type: Pressure
*Dsload
_PickedSurf5, P, 1e+06
** 
** OUTPUT REQUESTS
** 
*Restart, write, frequency=0
** 
** FIELD OUTPUT: F-Output-1
** 
*Output, field, variable=PRESELECT
** 
** HISTORY OUTPUT: H-Output-1
** 
*Output, history, variable=PRESELECT
*End Step
